Version 4
SHEET 1 2476 1608
WIRE 1456 1104 1440 1104
WIRE 1536 1104 1520 1104
WIRE 2128 1104 1824 1104
WIRE 2272 1104 2128 1104
WIRE 2272 1120 2272 1104
WIRE 1376 1200 1344 1200
WIRE 1536 1200 1456 1200
WIRE 2128 1200 2128 1184
WIRE 2128 1200 1824 1200
WIRE 2128 1216 2128 1200
WIRE 2272 1216 2272 1200
WIRE 1536 1296 1504 1296
WIRE 1872 1296 1824 1296
WIRE 2080 1296 1952 1296
WIRE 1392 1392 1360 1392
WIRE 1504 1392 1472 1392
WIRE 1536 1392 1504 1392
WIRE 1840 1392 1824 1392
WIRE 1888 1392 1840 1392
WIRE 2000 1392 1968 1392
WIRE 1840 1408 1840 1392
WIRE 2000 1408 2000 1392
WIRE 2128 1408 2128 1312
WIRE 2128 1408 2096 1408
WIRE 2240 1408 2128 1408
WIRE 2128 1440 2128 1408
WIRE 2240 1440 2240 1408
WIRE 1840 1488 1840 1472
WIRE 2000 1488 2000 1472
WIRE 1504 1520 1504 1392
WIRE 1616 1520 1504 1520
WIRE 2096 1520 2096 1408
WIRE 2096 1520 1696 1520
WIRE 2128 1552 2128 1504
WIRE 2240 1552 2240 1520
FLAG 1840 1488 0
FLAG 2128 1552 0
FLAG 1360 1392 0
FLAG 1504 1296 0
FLAG 1440 1104 0
FLAG 1344 1200 0
FLAG 2272 1216 0
FLAG 2000 1488 0
FLAG 2240 1552 0
FLAG 2240 1408 OUT
SYMBOL PowerProducts\\LT1575 1680 1248 R0
SYMATTR InstName U1
SYMBOL nmos 2080 1216 R0
SYMATTR InstName Q1
SYMATTR Value FDS6680A
SYMBOL res 1968 1280 R90
WINDOW 0 0 56 VBottom 0
WINDOW 3 32 56 VTop 0
SYMATTR InstName R1
SYMATTR Value 5
SYMBOL res 2112 1088 R0
SYMATTR InstName R2
SYMATTR Value .1
SYMBOL res 1984 1376 R90
WINDOW 0 0 56 VBottom 0
WINDOW 3 32 56 VTop 0
SYMATTR InstName R3
SYMATTR Value 7.5K
SYMBOL cap 1824 1408 R0
SYMATTR InstName C1
SYMATTR Value 10p
SYMBOL cap 1984 1408 R0
SYMATTR InstName C2
SYMATTR Value 1000p
SYMBOL cap 2112 1440 R0
SYMATTR InstName C3
SYMATTR Value 2400µ
SYMBOL res 1488 1376 R90
WINDOW 0 0 56 VBottom 0
WINDOW 3 32 56 VTop 0
SYMATTR InstName R4
SYMATTR Value 1K
SYMBOL res 1712 1504 R90
WINDOW 0 0 56 VBottom 0
WINDOW 3 32 56 VTop 0
SYMATTR InstName R5
SYMATTR Value 1.73K
SYMBOL cap 1520 1088 R90
WINDOW 0 0 32 VBottom 0
WINDOW 3 32 32 VTop 0
SYMATTR InstName C4
SYMATTR Value 1µ
SYMBOL voltage 1472 1200 R90
WINDOW 0 -32 56 VBottom 0
WINDOW 3 32 56 VTop 0
SYMATTR InstName V1
SYMATTR Value 12
SYMBOL voltage 2272 1104 R0
SYMATTR InstName V2
SYMATTR Value 5
SYMBOL res 2224 1424 R0
SYMATTR InstName Rload
SYMATTR Value 100
TEXT 1808 1568 Left 0 !.tran 100m startup
