Version 4
SHEET 1 896 680
WIRE 416 -48 416 -64
WIRE 240 -32 0 -32
WIRE -208 16 -208 0
WIRE 0 16 0 -32
WIRE 240 16 240 -32
WIRE 304 16 240 16
WIRE 560 16 528 16
WIRE -208 112 -208 96
WIRE 304 112 240 112
WIRE 560 112 528 112
WIRE 0 160 0 96
WIRE 160 160 0 160
WIRE 240 160 240 112
WIRE 240 160 224 160
WIRE 368 192 368 176
WIRE 464 192 464 176
FLAG -208 112 0
FLAG -208 0 +V
FLAG 416 -64 +V
FLAG 464 192 0
FLAG 368 192 0
FLAG 560 112 0
FLAG 560 16 OUT
SYMBOL voltage -208 0 R0
SYMATTR InstName V1
SYMATTR Value 5
SYMBOL voltage 0 0 R0
WINDOW 3 15 101 Left 0
SYMATTR Value sine(0 {A} 100K)
SYMATTR InstName V4
SYMBOL LTC1966 416 64 R0
SYMATTR InstName U1
SYMBOL cap 224 144 R90
WINDOW 0 0 32 VBottom 0
WINDOW 3 32 32 VTop 0
SYMATTR InstName C1
SYMATTR Value .1µ
TEXT 624 192 Left 0 !.tran 1m
TEXT 192 272 Left 0 !.step param A list 1m 10m 100m
