Version 4
SHEET 1 1156 680
WIRE 96 16 -160 16
WIRE 112 16 96 16
WIRE 400 16 368 16
WIRE 560 16 400 16
WIRE 624 16 560 16
WIRE 736 16 624 16
WIRE 816 16 736 16
WIRE 896 16 816 16
WIRE 1040 16 976 16
WIRE -160 32 -160 16
WIRE 560 32 560 16
WIRE 816 32 816 16
WIRE 1040 32 1040 16
WIRE 96 112 96 16
WIRE 112 112 96 112
WIRE 400 112 400 96
WIRE 400 112 368 112
WIRE 560 112 560 96
WIRE 560 112 400 112
WIRE 624 112 624 16
WIRE -160 128 -160 112
WIRE 400 128 400 112
WIRE 816 128 816 96
WIRE 1040 128 1040 112
WIRE 112 208 96 208
WIRE 400 208 368 208
WIRE 528 208 400 208
WIRE 624 208 624 192
WIRE 624 208 608 208
WIRE 736 272 736 16
WIRE 112 304 48 304
WIRE 624 304 624 208
WIRE 624 304 368 304
WIRE 48 400 48 304
WIRE 112 400 48 400
WIRE 736 400 736 352
WIRE 736 400 368 400
WIRE 48 416 48 400
WIRE 240 480 240 464
WIRE 48 512 48 496
FLAG 240 480 0
FLAG -160 128 0
FLAG 48 512 0
FLAG 816 128 0
FLAG 1040 128 0
FLAG 1040 16 OUT
FLAG -160 16 IN
SYMBOL PowerProducts\\LT3086 240 208 R0
SYMATTR InstName U1
SYMBOL voltage -160 16 R0
WINDOW 123 24 138 Left 2
WINDOW 39 24 117 Left 2
SYMATTR Value PWL(0 0 20u 10)
SYMATTR InstName V1
SYMBOL res 32 400 R0
SYMATTR InstName R1
SYMATTR Value 357
SYMBOL res 384 0 R0
SYMATTR InstName R2
SYMATTR Value 92K
SYMBOL res 608 96 R0
SYMATTR InstName R3
SYMATTR Value 82.5K
SYMBOL res 720 256 R0
SYMATTR InstName R4
SYMATTR Value 100K
SYMBOL cap 800 32 R0
SYMATTR InstName C1
SYMATTR Value 10µ
SYMATTR SpiceLine V=10 Irms=8.919 Rser=0.005 Lser=0 mfg="KEMET" pn="C1210C106K8PAC" type="X5R"
SYMBOL res 1024 16 R0
SYMATTR InstName Rload
SYMATTR Value 2.38
SYMBOL cap 544 32 R0
SYMATTR InstName C2
SYMATTR Value 10p
SYMBOL res 880 32 R270
WINDOW 0 32 56 VTop 2
WINDOW 3 0 56 VBottom 2
SYMATTR InstName Rwire
SYMATTR Value .24
SYMBOL res 384 112 R0
SYMATTR InstName R6
SYMATTR Value 46.4K
SYMBOL res 512 224 R270
WINDOW 0 32 56 VTop 2
WINDOW 3 0 56 VBottom 2
SYMATTR InstName R7
SYMATTR Value 46.4K
TEXT 728 464 Left 2 !.tran 2m
