Version 4
SHEET 1 2460 1736
WIRE 1520 1248 1408 1248
WIRE 1648 1248 1520 1248
WIRE 1776 1248 1648 1248
WIRE 1920 1248 1776 1248
WIRE 1408 1264 1408 1248
WIRE 1920 1264 1920 1248
WIRE 1648 1296 1648 1248
WIRE 1776 1296 1776 1248
WIRE 2016 1344 1984 1344
WIRE 2128 1344 2096 1344
WIRE 2224 1344 2128 1344
WIRE 2320 1344 2224 1344
WIRE 1408 1360 1408 1344
WIRE 2128 1360 2128 1344
WIRE 2224 1360 2224 1344
WIRE 2320 1360 2320 1344
WIRE 1520 1376 1520 1248
WIRE 1552 1376 1520 1376
WIRE 1984 1376 1984 1344
WIRE 1984 1376 1872 1376
WIRE 1376 1456 1360 1456
WIRE 1456 1456 1440 1456
WIRE 1552 1456 1536 1456
WIRE 2128 1456 2128 1440
WIRE 2128 1456 1872 1456
WIRE 2224 1456 2224 1424
WIRE 2320 1456 2320 1440
WIRE 2128 1472 2128 1456
WIRE 1424 1536 1360 1536
WIRE 1552 1536 1504 1536
WIRE 1920 1536 1920 1344
WIRE 1920 1536 1872 1536
WIRE 2128 1568 2128 1552
WIRE 1648 1632 1648 1616
WIRE 1776 1632 1776 1616
FLAG 1776 1632 0
FLAG 1648 1632 0
FLAG 1408 1360 0
FLAG 1360 1536 0
FLAG 2320 1456 0
FLAG 2128 1568 0
FLAG 2224 1456 0
FLAG 1360 1456 0
FLAG 2320 1344 OUT
FLAG 1408 1248 IN
SYMBOL POWERPRODUCTS\\LTC3411 1712 1456 R0
SYMATTR InstName U1
SYMBOL ind 2000 1360 R270
WINDOW 0 32 56 VTop 0
WINDOW 3 5 56 VBottom 0
SYMATTR InstName L1
SYMATTR Value 2.2µ
SYMBOL RES 2112 1344 R0
SYMATTR InstName R1
SYMATTR Value 887K
SYMBOL VOLTAGE 1408 1248 R0
SYMATTR InstName V1
SYMATTR Value 5
SYMBOL res 2112 1456 R0
SYMATTR InstName R2
SYMATTR Value 412K
SYMBOL res 1520 1520 R90
WINDOW 0 0 56 VBottom 0
WINDOW 3 32 56 VTop 0
SYMATTR InstName R3
SYMATTR Value 324K
SYMBOL res 1552 1440 R90
WINDOW 0 0 56 VBottom 0
WINDOW 3 32 56 VTop 0
SYMATTR InstName R4
SYMATTR Value 13K
SYMBOL cap 2208 1360 R0
SYMATTR InstName C1
SYMATTR Value 22µ
SYMBOL res 2304 1344 R0
SYMATTR InstName Rload
SYMATTR Value 10
SYMBOL cap 1440 1440 R90
WINDOW 0 0 32 VBottom 0
WINDOW 3 32 32 VTop 0
SYMATTR InstName C2
SYMATTR Value 1000p
SYMBOL res 1904 1248 R0
SYMATTR InstName R6
SYMATTR Value 10K
TEXT 1912 1608 Left 0 !.tran 700u startup
