Version 4
SHEET 1 1848 836
WIRE 992 64 400 64
WIRE 240 80 144 80
WIRE 336 80 240 80
WIRE 816 80 336 80
WIRE 144 96 144 80
WIRE 240 112 240 80
WIRE 336 144 336 80
WIRE 400 160 400 64
WIRE 416 160 400 160
WIRE 816 160 816 80
WIRE 816 160 800 160
WIRE 144 192 144 176
WIRE 240 192 240 176
WIRE 336 256 336 224
WIRE 416 256 336 256
WIRE 848 256 800 256
WIRE 880 256 848 256
WIRE 992 256 992 64
WIRE 992 256 960 256
WIRE 1040 256 992 256
WIRE 1168 256 1040 256
WIRE 848 272 848 256
WIRE 1040 272 1040 256
WIRE 1168 272 1168 256
WIRE 336 352 320 352
WIRE 416 352 400 352
WIRE 848 352 848 336
WIRE 848 352 800 352
WIRE 848 368 848 352
WIRE 1040 368 1040 336
WIRE 1168 368 1168 352
WIRE 416 448 400 448
WIRE 816 448 800 448
WIRE 848 448 848 432
WIRE 848 448 816 448
WIRE 992 448 992 256
WIRE 416 544 384 544
WIRE 992 544 992 528
WIRE 992 544 800 544
WIRE 992 560 992 544
WIRE 416 640 400 640
WIRE 864 640 800 640
WIRE 944 640 928 640
WIRE 992 656 992 640
WIRE 528 720 528 704
WIRE 688 720 688 704
WIRE 384 752 384 544
WIRE 816 752 816 448
WIRE 816 752 384 752
FLAG 528 720 0
FLAG 688 720 0
FLAG 848 512 0
FLAG 1168 368 0
FLAG 992 656 0
FLAG 1040 368 0
FLAG 144 192 0
FLAG 320 352 0
FLAG 240 192 0
FLAG 144 80 IN
FLAG 1168 256 OUT
FLAG 944 640 0
FLAG 400 448 0
SYMBOL res 976 432 R0
SYMATTR InstName R1
SYMATTR Value 30.1K
SYMBOL res 976 544 R0
SYMATTR InstName R2
SYMATTR Value 9.53K
SYMBOL schottky 832 432 M180
WINDOW 0 38 40 Left 0
WINDOW 3 24 0 Left 0
SYMATTR InstName D1
SYMATTR Value CMDSH2-3
SYMBOL cap 832 448 R0
WINDOW 0 26 10 Left 0
WINDOW 3 25 49 Left 0
SYMATTR InstName C1
SYMATTR Value 4.7
SYMBOL ind 864 272 R270
WINDOW 0 32 56 VTop 0
WINDOW 3 5 56 VBottom 0
SYMATTR InstName L1
SYMATTR Value .8
SYMBOL polcap 1024 272 R0
SYMATTR InstName C2
SYMATTR Value 200
SYMBOL VOLTAGE 144 80 R0
SYMATTR InstName V1
SYMATTR Value 12
SYMBOL cap 400 336 R90
WINDOW 0 0 32 VBottom 0
WINDOW 3 32 32 VTop 0
SYMATTR InstName C3
SYMATTR Value .001
SYMBOL cap 832 272 R0
WINDOW 0 36 15 Left 0
WINDOW 3 29 53 Left 0
SYMATTR InstName C4
SYMATTR Value .22
SYMBOL polcap 224 112 R0
SYMATTR InstName C5
SYMATTR Value 47
SYMBOL cap 864 656 R270
WINDOW 0 32 32 VTop 0
WINDOW 3 0 32 VBottom 0
WINDOW 39 -28 31 VBottom 0
SYMATTR InstName C6
SYMATTR Value 1500p
SYMATTR SpiceLine Rser=11.3K
SYMBOL res 320 128 R0
SYMATTR InstName R3
SYMATTR Value 187K
SYMBOL PowerProducts\\LTC3608 608 400 R0
SYMATTR InstName U1
SYMBOL res 1152 256 R0
SYMATTR InstName Rload
SYMATTR Value .3125
TEXT 1016 728 Left 0 !.tran 2.2m startup
