Version 4
SHEET 1 2332 940
WIRE 48 -400 48 -416
WIRE 336 -400 336 -416
WIRE -576 -304 -688 -304
WIRE 144 -304 -576 -304
WIRE 976 -304 144 -304
WIRE -688 -288 -688 -304
WIRE 240 -288 -208 -288
WIRE 560 -288 240 -288
WIRE 784 -288 560 -288
WIRE 48 -272 48 -320
WIRE 144 -272 144 -304
WIRE 240 -272 240 -288
WIRE 336 -272 336 -336
WIRE 432 -272 432 -416
WIRE 784 -256 784 -288
WIRE -48 -208 -64 -208
WIRE 544 -208 528 -208
WIRE -688 -192 -688 -208
WIRE 784 -144 784 -176
WIRE -208 -112 -208 -288
WIRE -144 -112 -208 -112
WIRE -48 -112 -64 -112
WIRE -480 -96 -736 -96
WIRE -368 -96 -416 -96
WIRE -304 -96 -368 -96
WIRE -208 -96 -208 -112
WIRE -208 -96 -240 -96
WIRE 560 -96 560 -288
WIRE 640 -96 560 -96
WIRE 768 -96 704 -96
WIRE 816 -96 768 -96
WIRE 1136 -96 880 -96
WIRE -576 -64 -576 -304
WIRE 976 -64 976 -304
WIRE -368 -48 -368 -96
WIRE 768 -48 768 -96
WIRE -144 -16 -160 -16
WIRE -48 -16 -64 -16
WIRE 560 -16 560 -96
WIRE 560 -16 528 -16
WIRE -496 16 -528 16
WIRE -208 16 -208 -96
WIRE -208 16 -240 16
WIRE 560 16 560 -16
WIRE 640 16 560 16
WIRE 928 16 896 16
WIRE -848 96 -880 96
WIRE -736 96 -736 -96
WIRE -736 96 -768 96
WIRE -576 96 -576 32
WIRE -576 96 -736 96
WIRE -496 96 -576 96
WIRE -208 96 -208 16
WIRE -208 96 -240 96
WIRE 560 96 560 16
WIRE 640 96 560 96
WIRE 976 96 976 32
WIRE 976 96 896 96
WIRE 1136 96 1136 -96
WIRE 1136 96 976 96
WIRE 1168 96 1136 96
WIRE 1264 96 1248 96
WIRE 1312 96 1264 96
WIRE 1408 96 1312 96
WIRE 1504 96 1408 96
WIRE 1504 112 1504 96
WIRE 1312 128 1312 96
WIRE 1408 128 1408 96
WIRE -496 176 -528 176
WIRE -48 176 -240 176
WIRE 640 176 528 176
WIRE 928 176 896 176
WIRE 1312 208 1312 192
WIRE 1408 208 1408 192
WIRE 1504 208 1504 192
WIRE -576 224 -576 192
WIRE 976 224 976 192
WIRE -368 256 -368 240
WIRE 768 256 768 240
WIRE -736 272 -736 96
WIRE -688 272 -736 272
WIRE -208 272 -608 272
WIRE -48 272 -208 272
WIRE 608 272 528 272
WIRE 1008 272 608 272
WIRE 1136 272 1136 96
WIRE 1136 272 1088 272
WIRE -208 288 -208 272
WIRE 608 288 608 272
WIRE -880 368 -880 96
WIRE -208 368 -208 352
WIRE -208 368 -880 368
WIRE -48 368 -208 368
WIRE 608 368 608 352
WIRE 608 368 528 368
WIRE 1264 368 1264 96
WIRE 1264 368 608 368
WIRE -48 464 -240 464
WIRE 560 464 560 96
WIRE 560 464 528 464
WIRE -240 560 -240 464
WIRE -192 560 -240 560
WIRE -80 560 -128 560
WIRE -48 560 -80 560
WIRE 560 560 528 560
WIRE -320 640 -320 608
WIRE -48 656 -64 656
WIRE 544 656 528 656
WIRE 576 656 544 656
WIRE 656 656 640 656
WIRE -320 752 -320 720
WIRE -240 752 -240 560
WIRE -240 752 -320 752
WIRE -320 784 -320 752
WIRE -240 784 -240 752
WIRE 64 832 64 816
WIRE 176 832 176 816
WIRE -64 864 -64 656
WIRE 544 864 544 656
WIRE 544 864 -64 864
WIRE -80 880 -80 560
WIRE 560 880 560 560
WIRE 560 880 -80 880
WIRE -320 896 -320 864
WIRE -240 896 -240 848
WIRE -240 896 -320 896
WIRE 416 896 416 816
WIRE 416 896 -240 896
WIRE -880 912 -880 368
WIRE 304 912 304 816
WIRE 304 912 -880 912
WIRE 1264 912 1264 368
WIRE 1264 912 304 912
FLAG 64 832 0
FLAG -688 -192 0
FLAG 784 -144 0
FLAG 336 -416 0
FLAG 432 -416 0
FLAG 48 -416 0
FLAG 768 256 0
FLAG 976 224 0
FLAG -368 256 0
FLAG -576 224 0
FLAG -160 -16 0
FLAG 1312 208 0
FLAG 1408 208 0
FLAG 1504 208 0
FLAG 1504 96 OUT
FLAG -688 -304 IN
FLAG 176 832 0
FLAG -320 608 0
FLAG 656 656 0
SYMBOL PowerProducts\\LTC3860 240 272 R0
SYMATTR InstName U1
SYMBOL voltage -688 -304 R0
SYMATTR InstName V1
SYMATTR Value 12
SYMBOL voltage 784 -272 R0
SYMATTR InstName V2
SYMATTR Value 5
SYMBOL cap 320 -400 R0
SYMATTR InstName C1
SYMATTR Value 100p
SYMBOL res 32 -416 R0
SYMATTR InstName R1
SYMATTR Value 43.5K
SYMBOL res -160 -96 R270
WINDOW 0 32 56 VTop 0
WINDOW 3 0 56 VBottom 0
SYMATTR InstName R2
SYMATTR Value 100K
SYMBOL PowerProducts\\LTC4449 768 96 R0
SYMATTR InstName U2
SYMBOL nmos 928 -64 R0
SYMATTR InstName Q1
SYMATTR Value RJK0305DPB
SYMBOL nmos 928 96 R0
SYMATTR InstName Q2
SYMATTR Value RJK0301DPB
SYMBOL ind 1152 112 R270
WINDOW 0 32 56 VTop 0
WINDOW 3 5 56 VBottom 0
SYMATTR InstName L1
SYMATTR Value .3
SYMATTR SpiceLine Rser=.5m Rpar=5K
SYMBOL res 1104 256 R90
WINDOW 0 0 56 VBottom 0
WINDOW 3 32 56 VTop 0
SYMATTR InstName R3
SYMATTR Value 2.74K
SYMBOL cap 592 288 R0
SYMATTR InstName C2
SYMATTR Value .22
SYMBOL PowerProducts\\LTC4449 -368 96 M0
SYMATTR InstName U3
SYMBOL nmos -528 -64 M0
SYMATTR InstName Q3
SYMATTR Value RJK0305DPB
SYMBOL nmos -528 96 M0
SYMATTR InstName Q4
SYMATTR Value RJK0301DPB
SYMBOL ind -752 112 M270
WINDOW 0 32 56 VTop 0
WINDOW 3 5 56 VBottom 0
SYMATTR InstName L2
SYMATTR Value .3
SYMATTR SpiceLine Rser=.5m Rpar=5K
SYMBOL res -704 256 M90
WINDOW 0 0 56 VBottom 0
WINDOW 3 32 56 VTop 0
SYMATTR InstName R4
SYMATTR Value 2.74K
SYMBOL cap -224 288 R0
SYMATTR InstName C3
SYMATTR Value .22
SYMBOL res -160 0 R270
WINDOW 0 32 56 VTop 0
WINDOW 3 0 56 VBottom 0
SYMATTR InstName R5
SYMATTR Value 49.9K
SYMBOL cap 1296 128 R0
WINDOW 123 29 64 Left 0
WINDOW 3 41 38 Left 0
SYMATTR Value2 X6
SYMATTR InstName C4
SYMATTR Value 330
SYMATTR SpiceLine Rser=10m
SYMBOL cap 1392 128 R0
WINDOW 123 28 61 Left 0
WINDOW 3 41 35 Left 0
SYMATTR Value2 X6
SYMATTR InstName C5
SYMATTR Value 47
SYMATTR SpiceLine Rser=3m
SYMBOL res -336 768 R0
SYMATTR InstName R6
SYMATTR Value 20K
SYMBOL res -336 624 R0
SYMATTR InstName R7
SYMATTR Value 20K
SYMBOL cap -128 544 R90
WINDOW 0 0 32 VBottom 0
WINDOW 3 32 32 VTop 0
WINDOW 39 53 32 VTop 0
WINDOW 123 74 32 VTop 0
SYMATTR InstName C6
SYMATTR Value 220p
SYMATTR SpiceLine Cpar=33p
SYMATTR Value2 Rser=12.7K
SYMBOL schottky -240 -112 R90
WINDOW 0 0 32 VBottom 0
WINDOW 3 32 32 VTop 0
SYMATTR InstName D1
SYMATTR Value 1N5818
SYMATTR Description Diode
SYMATTR Type diode
SYMBOL cap -416 -112 R90
WINDOW 0 0 32 VBottom 0
WINDOW 3 32 32 VTop 0
SYMATTR InstName C7
SYMATTR Value .22
SYMBOL schottky 640 -112 M90
WINDOW 0 0 32 VBottom 0
WINDOW 3 32 32 VTop 0
SYMATTR InstName D2
SYMATTR Value 1N5818
SYMATTR Description Diode
SYMATTR Type diode
SYMBOL cap 816 -112 M90
WINDOW 0 0 32 VBottom 0
WINDOW 3 32 32 VTop 0
SYMATTR InstName C8
SYMATTR Value .22
SYMBOL cap 576 672 R270
WINDOW 0 32 32 VTop 0
WINDOW 3 0 32 VBottom 0
SYMATTR InstName C9
SYMATTR Value .005
SYMBOL cap -256 784 R0
WINDOW 39 27 66 Left 0
WINDOW 3 39 39 Left 0
SYMATTR SpiceLine Rser=1.33K
SYMATTR InstName C10
SYMATTR Value 1500p
SYMBOL res 1488 96 R0
SYMATTR InstName Rload
SYMATTR Value 24m
TEXT 1320 704 Left 0 !.tran 1m startup
