Version 4
SHEET 1 1932 680
WIRE 512 -352 432 -352
WIRE 624 -352 592 -352
WIRE 816 -352 624 -352
WIRE 432 -336 432 -352
WIRE 624 -336 624 -352
WIRE 816 -272 816 -352
WIRE 624 -256 624 -272
WIRE 432 -240 432 -256
WIRE 704 -192 608 -192
WIRE 976 -192 928 -192
WIRE 704 -112 592 -112
WIRE 976 -112 928 -112
WIRE 592 -96 592 -112
WIRE 416 -32 416 -64
WIRE 704 -32 672 -32
WIRE 1024 -32 928 -32
WIRE 592 0 592 -16
WIRE 672 0 672 -32
WIRE 672 0 592 0
WIRE 416 112 416 48
WIRE 592 112 592 0
WIRE 816 112 816 96
WIRE 416 208 416 192
WIRE 592 208 592 192
FLAG 592 208 0
FLAG 416 208 0
FLAG 416 -64 temp
FLAG 432 -240 0
FLAG 816 112 0
FLAG 608 -192 0
FLAG 624 -256 0
SYMBOL res 576 96 R0
SYMATTR InstName R1
SYMATTR Value R=10K*exp(3490/V(temp) - 3490/298)
SYMBOL voltage 416 96 R0
SYMATTR InstName V1
SYMATTR Value 273
SYMBOL voltage 416 -48 R0
WINDOW 123 0 0 Left 2
WINDOW 39 0 0 Left 2
SYMATTR InstName V2
SYMATTR Value {tempC}
SYMBOL LTC4070 816 -64 R0
SYMATTR InstName U1
SYMBOL voltage 432 -352 R0
WINDOW 123 0 0 Left 2
WINDOW 39 0 0 Left 2
SYMATTR InstName V3
SYMATTR Value 10
SYMBOL res 608 -368 R90
WINDOW 0 0 56 VBottom 2
WINDOW 3 32 56 VTop 2
SYMATTR InstName R2
SYMATTR Value 1K
SYMBOL res 576 -112 R0
SYMATTR InstName R3
SYMATTR Value 10K
SYMBOL cap 608 -336 R0
SYMATTR InstName C1
SYMATTR Value 1µ
TEXT 1064 192 Left 2 !.tran 10
TEXT 1064 144 Left 2 !.measure tran vcc find V(VCC) at 9.8
TEXT 1072 88 Left 2 !.step param tempc 20 85 2
