Version 4
SHEET 1 1932 680
WIRE 480 -336 416 -336
WIRE 592 -336 560 -336
WIRE 816 -336 592 -336
WIRE 416 -320 416 -336
WIRE 592 -304 592 -336
WIRE 816 -272 816 -336
WIRE 416 -224 416 -240
WIRE 592 -224 592 -240
WIRE 704 -224 672 -224
WIRE 1056 -192 928 -192
WIRE 1056 -176 1056 -192
WIRE 704 -160 672 -160
WIRE 944 -112 928 -112
WIRE 704 -96 592 -96
WIRE 1056 -96 1056 -112
WIRE 592 -80 592 -96
WIRE 416 -32 416 -64
WIRE 704 -32 672 -32
WIRE 592 32 592 0
WIRE 672 32 672 -32
WIRE 672 32 592 32
WIRE 416 80 416 48
WIRE 592 96 592 32
WIRE 816 112 816 96
WIRE 416 176 416 160
WIRE 592 192 592 176
FLAG 592 192 0
FLAG 416 176 0
FLAG 416 -64 temp
FLAG 416 -224 0
FLAG 816 112 0
FLAG 592 -224 0
FLAG 672 -160 0
FLAG 1056 -96 0
FLAG 1056 -192 BAT
FLAG 672 -224 0
SYMBOL res 576 80 R0
SYMATTR InstName R1
SYMATTR Value R=10K*exp(3490/V(temp) - 3490/298)
SYMBOL voltage 416 64 R0
SYMATTR InstName V1
SYMATTR Value 273
SYMBOL voltage 416 -48 R0
WINDOW 123 0 0 Left 2
WINDOW 39 0 0 Left 2
SYMATTR InstName V2
SYMATTR Value {tempC}
SYMBOL voltage 416 -336 R0
WINDOW 123 0 0 Left 2
WINDOW 39 0 0 Left 2
SYMATTR InstName V3
SYMATTR Value 10
SYMBOL res 576 -352 R90
WINDOW 0 0 56 VBottom 2
WINDOW 3 32 56 VTop 2
SYMATTR InstName R2
SYMATTR Value 1K
SYMBOL res 576 -96 R0
SYMATTR InstName R3
SYMATTR Value 10K
SYMBOL cap 576 -304 R0
SYMATTR InstName C1
SYMATTR Value 1µ
SYMBOL LTC4071 816 -64 R0
SYMATTR InstName U1
SYMBOL cap 1040 -176 R0
SYMATTR InstName C2
SYMATTR Value 1µ
TEXT 1144 152 Left 2 !.tran 10
TEXT 1016 64 Left 2 !.measure tran Vbat find V(bat) at 9.8
TEXT 1016 32 Left 2 !.step param tempc 20 85 2
