Version 4
SHEET 1 1308 680
WIRE -432 -16 -480 -16
WIRE -336 -16 -368 -16
WIRE -256 -16 -272 -16
WIRE -112 -16 -256 -16
WIRE -16 -16 -112 -16
WIRE 416 -16 -16 -16
WIRE 496 -16 416 -16
WIRE 608 -16 496 -16
WIRE 720 -16 608 -16
WIRE 848 -16 720 -16
WIRE 416 0 416 -16
WIRE -16 16 -16 -16
WIRE 496 48 496 -16
WIRE 608 80 608 -16
WIRE 848 80 848 -16
WIRE -256 96 -256 -16
WIRE -112 96 -112 -16
WIRE 96 96 64 96
WIRE 416 96 416 80
WIRE 416 96 384 96
WIRE 720 96 720 -16
WIRE -480 160 -480 -16
WIRE -16 160 -16 96
WIRE 96 160 -16 160
WIRE 496 160 496 128
WIRE 496 160 384 160
WIRE -32 224 -48 224
WIRE 96 224 48 224
WIRE 608 224 608 160
WIRE 608 224 384 224
WIRE -480 288 -480 240
WIRE -256 288 -256 160
WIRE -256 288 -480 288
WIRE -112 288 -112 160
WIRE -112 288 -256 288
WIRE -48 288 -48 224
WIRE -48 288 -112 288
WIRE 64 288 64 96
WIRE 64 288 -48 288
WIRE 96 288 64 288
WIRE 720 288 720 160
WIRE 720 288 384 288
WIRE 848 288 848 160
WIRE 848 288 720 288
WIRE -480 320 -480 288
FLAG -480 320 0
FLAG 848 288 VOUT
FLAG 848 -16 AGND
FLAG -480 -16 VPSE
SYMBOL voltage -480 144 R0
WINDOW 3 -142 247 Left 0
WINDOW 123 0 0 Left 0
WINDOW 39 0 0 Left 0
SYMATTR Value PWL(0 0 10m 6 250m 6 260m 5 500m 5 505m 8 555m 8 560m 4 610m 4 611m 17 621m 17 622m 8 627m 8 628m 17 638m 17 639m 8 659m 8 660m 57)
SYMATTR InstName V1
SYMBOL res 64 208 R90
WINDOW 0 0 56 VBottom 0
WINDOW 3 32 56 VTop 0
SYMATTR InstName R1
SYMATTR Value 30.9
SYMBOL res 480 32 R0
SYMATTR InstName R2
SYMATTR Value 100K
SYMBOL res 592 64 R0
SYMATTR InstName R3
SYMATTR Value 100K
SYMBOL res -32 0 R0
SYMATTR InstName R4
SYMATTR Value 100K
SYMBOL cap 704 96 R0
SYMATTR InstName C1
SYMATTR Value 100µ
SYMBOL cap -128 96 R0
SYMATTR InstName C2
SYMATTR Value .1µ
SYMBOL zener -272 160 M180
WINDOW 0 24 72 Left 0
WINDOW 3 24 0 Left 0
SYMATTR InstName D1
SYMATTR Value SMAJ58A
SYMBOL diode -336 0 R270
WINDOW 0 32 32 VTop 0
WINDOW 3 0 32 VBottom 0
SYMATTR InstName D2
SYMATTR Value HD01
SYMBOL diode -432 0 R270
WINDOW 0 32 32 VTop 0
WINDOW 3 0 32 VBottom 0
SYMATTR InstName D3
SYMATTR Value HD01
SYMBOL res 400 -16 R0
SYMATTR InstName R5
SYMATTR Value .1
SYMBOL current 848 80 R0
WINDOW 123 0 0 Left 0
WINDOW 39 0 0 Left 0
SYMATTR InstName I1
SYMATTR Value PWL(0 0 .775 0 0.78 .6)
SYMBOL LTC4265 240 192 R0
SYMATTR InstName U1
TEXT 760 496 Left 0 !.tran 0 .8 0 startup
TEXT -496 456 Left 0 !.model SMAJ58A D(BV=90)\n.model HD01 D(Is=3.47n Rs=42.6m BV=100 IBV=5u Cjo=25.2p  M=0.333 N=1.7 TT=4.32u)
TEXT -424 -80 Left 0 ;Diode Bridge
TEXT -656 192 Left 0 ;From PSE
TEXT -136 352 Left 0 ;Set for Class4 Load
