Version 4
SHEET 1 880 680
WIRE -16 16 -112 16
WIRE 416 16 -16 16
WIRE 560 16 464 16
WIRE 688 16 624 16
WIRE 784 16 688 16
WIRE -112 32 -112 16
WIRE 416 32 416 16
WIRE 464 32 464 16
WIRE 784 32 784 16
WIRE 688 48 688 16
WIRE -112 128 -112 112
WIRE -16 144 -16 16
WIRE 96 144 -16 144
WIRE 416 144 416 112
WIRE 416 144 320 144
WIRE 464 144 464 112
WIRE 688 144 688 112
WIRE 784 144 784 112
WIRE 416 176 416 144
WIRE -16 272 -16 144
WIRE 96 272 -16 272
WIRE 416 272 416 256
WIRE 416 272 320 272
WIRE 208 336 208 320
FLAG 208 336 0
FLAG -112 128 0
FLAG -112 16 IN
FLAG 464 144 0
FLAG 688 144 0
FLAG 784 144 0
FLAG 784 16 OUT
SYMBOL voltage -112 16 R0
SYMATTR InstName V1
SYMATTR Value 24
SYMBOL ind2 400 16 R0
WINDOW 0 0 39 Right 2
WINDOW 3 0 77 Right 2
SYMATTR InstName L1
SYMATTR Value 40µ
SYMATTR Type ind
SYMATTR SpiceLine Rser=500m Cpar=1p
SYMBOL ind2 480 128 R180
WINDOW 0 -4 72 Right 2
WINDOW 3 -1 33 Right 2
SYMATTR InstName L2
SYMATTR Value 4.4µ
SYMATTR Type ind
SYMATTR SpiceLine Rser=20m Cpar=.2p
SYMBOL res 400 160 R0
SYMATTR InstName R3
SYMATTR Value 154K
SYMBOL schottky 560 32 R270
WINDOW 0 32 32 VTop 2
WINDOW 3 0 32 VBottom 2
SYMATTR InstName D1
SYMATTR Value MBRS360
SYMATTR Description Diode
SYMATTR Type diode
SYMBOL polcap 672 48 R0
WINDOW 3 24 56 Left 2
SYMATTR InstName C1
SYMATTR Value 100µ
SYMATTR SpiceLine V=10 Irms=2.2 Rser=0.025 Lser=0 mfg="KEMET" pn="T520V107M010ASE025" type="Tantalum"
SYMATTR Description Capacitor
SYMATTR Type cap
SYMBOL res 768 16 R0
SYMATTR InstName Rload
SYMATTR Value 5
SYMBOL PowerProducts\\LT8301 208 208 R0
SYMATTR InstName U1
TEXT 392 -16 Left 2 !K1 L1 L2 1
TEXT 560 312 Left 2 !.tran 5m startup
