Version 4
SHEET 1 3040 2472
WIRE 1856 1840 1824 1840
WIRE 1968 1840 1920 1840
WIRE 2016 1840 1968 1840
WIRE 2128 1840 2080 1840
WIRE 1968 1872 1968 1840
WIRE 1824 1952 1824 1840
WIRE 1936 1952 1824 1952
WIRE 2128 1952 2128 1840
WIRE 2128 1952 2000 1952
WIRE 2128 1968 2128 1952
WIRE 2608 2016 2528 2016
WIRE 2704 2016 2672 2016
WIRE 2128 2048 2128 2032
WIRE 2368 2048 2128 2048
WIRE 2480 2048 2416 2048
WIRE 2128 2064 2128 2048
WIRE 2368 2064 2368 2048
WIRE 2416 2064 2416 2048
WIRE 2528 2064 2528 2016
WIRE 2704 2112 2704 2016
WIRE 2768 2112 2704 2112
WIRE 2880 2112 2768 2112
WIRE 1824 2128 1824 1952
WIRE 1984 2128 1824 2128
WIRE 2080 2128 1984 2128
WIRE 2768 2128 2768 2112
WIRE 2880 2128 2880 2112
WIRE 1824 2160 1824 2128
WIRE 1984 2160 1984 2128
WIRE 2368 2160 2368 2144
WIRE 2368 2160 2304 2160
WIRE 2128 2176 2128 2160
WIRE 2304 2176 2304 2160
WIRE 2480 2176 2480 2048
WIRE 2528 2176 2528 2144
WIRE 2528 2176 2480 2176
WIRE 2480 2192 2480 2176
WIRE 2416 2224 2416 2144
WIRE 2608 2224 2416 2224
WIRE 2704 2224 2704 2112
WIRE 2704 2224 2672 2224
WIRE 2768 2224 2768 2192
WIRE 2880 2224 2880 2208
WIRE 1824 2272 1824 2240
WIRE 1984 2272 1984 2224
WIRE 2128 2272 2128 2256
WIRE 2304 2272 2304 2256
FLAG 1968 1872 0
FLAG 1824 2272 0
FLAG 2128 2272 0
FLAG 2304 2272 0
FLAG 1984 2272 0
FLAG 2480 2192 0
FLAG 2768 2224 0
FLAG 2880 2224 0
FLAG 2880 2112 OUT
SYMBOL MISC\\XTAL 2000 1936 R90
WINDOW 0 0 32 VBottom 2
WINDOW 3 32 32 VTop 2
SYMATTR InstName Y1
SYMATTR Value 0.25p
SYMATTR SpiceLine Rser=0.1 Lser=0.001 Cpar=5e-011
SYMBOL NJF 2080 2064 R0
SYMATTR InstName J1
SYMATTR Value 2N5484
SYMBOL cap 2112 1968 R0
SYMATTR InstName C3
SYMATTR Value 200p
SYMBOL cap 2080 1824 R90
WINDOW 0 0 32 VBottom 2
WINDOW 3 32 32 VTop 2
SYMATTR InstName C2
SYMATTR Value 100p
SYMBOL cap 1920 1824 R90
WINDOW 0 0 32 VBottom 2
WINDOW 3 32 32 VTop 2
SYMATTR InstName C1
SYMATTR Value 25p
SYMBOL RES 1808 2144 R0
SYMATTR InstName R1
SYMATTR Value 100K
SYMBOL VOLTAGE 2304 2160 R0
SYMATTR InstName V1
SYMATTR Value 10.
SYMBOL diode 1968 2224 M180
WINDOW 0 24 64 Left 2
WINDOW 3 24 0 Left 2
SYMATTR InstName D1
SYMATTR Value 1N4148
SYMBOL ind2 2432 2048 M0
WINDOW 0 -2 37 Right 2
WINDOW 3 -4 72 Right 2
SYMATTR InstName L2
SYMATTR Value 6
SYMBOL ind2 2544 2048 M0
WINDOW 0 -1 36 Right 2
WINDOW 3 -2 74 Right 2
SYMATTR InstName L3
SYMATTR Value 6
SYMBOL ind2 2352 2048 R0
WINDOW 0 -4 35 Right 2
WINDOW 3 -4 73 Right 2
SYMATTR InstName L1
SYMATTR Value 12
SYMBOL diode 2608 2032 R270
WINDOW 0 32 32 VTop 2
WINDOW 3 0 32 VBottom 2
SYMATTR InstName D3
SYMATTR Value 1N4148
SYMBOL diode 2608 2240 R270
WINDOW 0 32 32 VTop 2
WINDOW 3 0 32 VBottom 2
SYMATTR InstName D4
SYMATTR Value 1N4148
SYMBOL cap 2752 2128 R0
SYMATTR InstName C5
SYMATTR Value 10p
SYMBOL ind 2864 2112 R0
SYMATTR InstName L4
SYMATTR Value 6.3
SYMBOL RES 2112 2160 R0
SYMATTR InstName R2
SYMATTR Value 100
TEXT 1856 2328 Left 2 !.tran 1.5m startup
TEXT 2392 2032 Center 2 !K1 L1 L2 L3 1.
TEXT 2328 2408 Top 1 ;This example schematic is supplied for informational/educational purposes only.
TEXT 1856 2376 Left 2 !.options method=trap
