Version 4
SHEET 1 880 680
WIRE 144 0 96 0
WIRE 288 0 224 0
WIRE 288 112 288 0
WIRE 288 112 240 112
WIRE 368 112 288 112
WIRE -16 128 -80 128
WIRE 96 128 96 0
WIRE 96 128 64 128
WIRE 112 128 96 128
WIRE 272 144 240 144
WIRE 112 160 80 160
WIRE 80 208 80 160
WIRE 80 208 32 208
FLAG 240 176 0
FLAG -336 288 0
FLAG -336 208 3V3
FLAG 272 144 3V3
FLAG 368 112 VOUT
FLAG -80 208 0
FLAG 32 208 -3V3
FLAG -240 208 0
FLAG -240 288 -3V3
SYMBOL AutoGenerated\\TSV99X 176 144 R0
SYMATTR InstName U1
SYMBOL voltage -336 192 R0
WINDOW 123 0 0 Left 2
WINDOW 39 0 0 Left 2
SYMATTR InstName V1
SYMATTR Value 3.3
SYMBOL res -32 144 R270
WINDOW 0 32 56 VTop 2
WINDOW 3 0 56 VBottom 2
SYMATTR InstName R1
SYMATTR Value 10k
SYMBOL res 128 16 R270
WINDOW 0 32 56 VTop 2
WINDOW 3 0 56 VBottom 2
SYMATTR InstName R2
SYMATTR Value 10k
SYMBOL voltage -80 112 R0
WINDOW 3 15 129 Left 2
WINDOW 123 0 0 Left 2
WINDOW 39 0 0 Left 2
SYMATTR InstName V2
SYMATTR Value SINE(0 1.650 1000)
SYMBOL voltage -240 192 R0
WINDOW 123 0 0 Left 2
WINDOW 39 0 0 Left 2
SYMATTR InstName V3
SYMATTR Value 3.3
TEXT 272 312 Left 2 !.tran 10m
