Version 4
SHEET 1 880 680
WIRE 384 32 192 32
WIRE 144 96 -64 96
WIRE 384 96 384 32
WIRE 384 96 352 96
WIRE 512 96 384 96
WIRE 192 112 192 32
WIRE 224 112 192 112
WIRE -64 128 -64 96
WIRE 144 144 144 96
WIRE 224 144 144 144
WIRE -32 400 -32 384
WIRE -32 400 -80 400
WIRE -32 416 -32 400
FLAG -64 208 0
FLAG 352 160 0
FLAG -80 400 0
FLAG -32 304 3V3
FLAG -32 496 -3V3
FLAG 352 128 3V3
SYMBOL AutoGenerated\\TSV99X 288 128 R0
SYMATTR InstName U1
SYMBOL voltage -64 112 R0
WINDOW 123 0 0 Left 2
WINDOW 39 0 0 Left 2
SYMATTR InstName V1
SYMATTR Value ""
SYMBOL voltage -32 288 R0
WINDOW 123 0 0 Left 2
WINDOW 39 0 0 Left 2
SYMATTR InstName V2
SYMATTR Value 3.3
SYMBOL voltage -32 400 R0
WINDOW 123 0 0 Left 2
WINDOW 39 0 0 Left 2
SYMATTR InstName V3
SYMATTR Value 3.3
